validation_cases/use_cases/uc1/check_live_pglib_opf_case30_ieee__api.powermodels.json
{
    "ac": true,
    "baseMVA": 100,
    "branch": {
        "1": {
            "angmax": 1.0471975511965976,
            "angmin": -1.0471975511965976,
            "b_fr": 2.6400000000000006,
            "b_to": 2.6400000000000006,
            "br_r": 0.00019199999999999998,
            "br_status": 1,
            "br_x": 0.000575,
            "f_bus": 1,
            "g_fr": 0.0,
            "g_to": 0.0,
            "index": 1,
            "rate_a": 138.0,
            "rate_b": 0.0,
            "rate_c": 0.0,
            "shift": 0.0,
            "t_bus": 2,
            "tap": 1.0,
            "transformer": false
        },
        "10": {
            "angmax": 1.0471975511965976,
            "angmin": -1.0471975511965976,
            "b_fr": 0.44999999999999996,
            "b_to": 0.44999999999999996,
            "br_r": 0.00012,
            "br_status": 1,
            "br_x": 0.00042,
            "f_bus": 6,
            "g_fr": 0.0,
            "g_to": 0.0,
            "index": 10,
            "rate_a": 147.99999999999997,
            "rate_b": 0.0,
            "rate_c": 0.0,
            "shift": 0.0,
            "t_bus": 8,
            "tap": 1.0,
            "transformer": false
        },
        "11": {
            "angmax": 1.0471975511965976,
            "angmin": -1.0471975511965976,
            "b_fr": 0.0,
            "b_to": 0.0,
            "br_r": 0.001231,
            "br_status": 1,
            "br_x": 0.002559,
            "f_bus": 12,
            "g_fr": 0.0,
            "g_to": 0.0,
            "index": 11,
            "rate_a": 28.999999999999996,
            "rate_b": 0.0,
            "rate_c": 0.0,
            "shift": 0.0,
            "t_bus": 14,
            "tap": 1.0,
            "transformer": false
        },
        "12": {
            "angmax": 1.0471975511965976,
            "angmin": -1.0471975511965976,
            "b_fr": 0.0,
            "b_to": 0.0,
            "br_r": 0.0006619999999999999,
            "br_status": 1,
            "br_x": 0.0013039999999999998,
            "f_bus": 12,
            "g_fr": 0.0,
            "g_to": 0.0,
            "index": 12,
            "rate_a": 28.999999999999996,
            "rate_b": 0.0,
            "rate_c": 0.0,
            "shift": 0.0,
            "t_bus": 15,
            "tap": 1.0,
            "transformer": false
        },
        "13": {
            "angmax": 1.0471975511965976,
            "angmin": -1.0471975511965976,
            "b_fr": 0.0,
            "b_to": 0.0,
            "br_r": 0.0009450000000000001,
            "br_status": 1,
            "br_x": 0.001987,
            "f_bus": 12,
            "g_fr": 0.0,
            "g_to": 0.0,
            "index": 13,
            "rate_a": 29.999999999999996,
            "rate_b": 0.0,
            "rate_c": 0.0,
            "shift": 0.0,
            "t_bus": 16,
            "tap": 1.0,
            "transformer": false
        },
        "14": {
            "angmax": 1.0471975511965976,
            "angmin": -1.0471975511965976,
            "b_fr": 0.0,
            "b_to": 0.0,
            "br_r": 0.00221,
            "br_status": 1,
            "br_x": 0.0019969999999999996,
            "f_bus": 14,
            "g_fr": 0.0,
            "g_to": 0.0,
            "index": 14,
            "rate_a": 20.0,
            "rate_b": 0.0,
            "rate_c": 0.0,
            "shift": 0.0,
            "t_bus": 15,
            "tap": 1.0,
            "transformer": false
        },
        "15": {
            "angmax": 1.0471975511965976,
            "angmin": -1.0471975511965976,
            "b_fr": 0.0,
            "b_to": 0.0,
            "br_r": 0.000524,
            "br_status": 1,
            "br_x": 0.001923,
            "f_bus": 16,
            "g_fr": 0.0,
            "g_to": 0.0,
            "index": 15,
            "rate_a": 38.0,
            "rate_b": 0.0,
            "rate_c": 0.0,
            "shift": 0.0,
            "t_bus": 17,
            "tap": 1.0,
            "transformer": false
        },
        "16": {
            "angmax": 1.0471975511965976,
            "angmin": -1.0471975511965976,
            "b_fr": 0.0,
            "b_to": 0.0,
            "br_r": 0.0010730000000000002,
            "br_status": 1,
            "br_x": 0.002185,
            "f_bus": 15,
            "g_fr": 0.0,
            "g_to": 0.0,
            "index": 16,
            "rate_a": 28.999999999999996,
            "rate_b": 0.0,
            "rate_c": 0.0,
            "shift": 0.0,
            "t_bus": 18,
            "tap": 1.0,
            "transformer": false
        },
        "17": {
            "angmax": 1.0471975511965976,
            "angmin": -1.0471975511965976,
            "b_fr": 0.0,
            "b_to": 0.0,
            "br_r": 0.000639,
            "br_status": 1,
            "br_x": 0.0012920000000000002,
            "f_bus": 18,
            "g_fr": 0.0,
            "g_to": 0.0,
            "index": 17,
            "rate_a": 28.999999999999996,
            "rate_b": 0.0,
            "rate_c": 0.0,
            "shift": 0.0,
            "t_bus": 19,
            "tap": 1.0,
            "transformer": false
        },
        "18": {
            "angmax": 1.0471975511965976,
            "angmin": -1.0471975511965976,
            "b_fr": 0.0,
            "b_to": 0.0,
            "br_r": 0.00034,
            "br_status": 1,
            "br_x": 0.00068,
            "f_bus": 19,
            "g_fr": 0.0,
            "g_to": 0.0,
            "index": 18,
            "rate_a": 28.999999999999996,
            "rate_b": 0.0,
            "rate_c": 0.0,
            "shift": 0.0,
            "t_bus": 20,
            "tap": 1.0,
            "transformer": false
        },
        "19": {
            "angmax": 1.0471975511965976,
            "angmin": -1.0471975511965976,
            "b_fr": 0.0,
            "b_to": 0.0,
            "br_r": 0.0009359999999999999,
            "br_status": 1,
            "br_x": 0.00209,
            "f_bus": 10,
            "g_fr": 0.0,
            "g_to": 0.0,
            "index": 19,
            "rate_a": 29.999999999999996,
            "rate_b": 0.0,
            "rate_c": 0.0,
            "shift": 0.0,
            "t_bus": 20,
            "tap": 1.0,
            "transformer": false
        },
        "2": {
            "angmax": 1.0471975511965976,
            "angmin": -1.0471975511965976,
            "b_fr": 2.04,
            "b_to": 2.04,
            "br_r": 0.000452,
            "br_status": 1,
            "br_x": 0.001652,
            "f_bus": 1,
            "g_fr": 0.0,
            "g_to": 0.0,
            "index": 2,
            "rate_a": 152.0,
            "rate_b": 0.0,
            "rate_c": 0.0,
            "shift": 0.0,
            "t_bus": 3,
            "tap": 1.0,
            "transformer": false
        },
        "20": {
            "angmax": 1.0471975511965976,
            "angmin": -1.0471975511965976,
            "b_fr": 0.0,
            "b_to": 0.0,
            "br_r": 0.00032399999999999996,
            "br_status": 1,
            "br_x": 0.000845,
            "f_bus": 10,
            "g_fr": 0.0,
            "g_to": 0.0,
            "index": 20,
            "rate_a": 33.0,
            "rate_b": 0.0,
            "rate_c": 0.0,
            "shift": 0.0,
            "t_bus": 17,
            "tap": 1.0,
            "transformer": false
        },
        "21": {
            "angmax": 1.0471975511965976,
            "angmin": -1.0471975511965976,
            "b_fr": 0.0,
            "b_to": 0.0,
            "br_r": 0.000348,
            "br_status": 1,
            "br_x": 0.000749,
            "f_bus": 10,
            "g_fr": 0.0,
            "g_to": 0.0,
            "index": 21,
            "rate_a": 29.999999999999996,
            "rate_b": 0.0,
            "rate_c": 0.0,
            "shift": 0.0,
            "t_bus": 21,
            "tap": 1.0,
            "transformer": false
        },
        "22": {
            "angmax": 1.0471975511965976,
            "angmin": -1.0471975511965976,
            "b_fr": 0.0,
            "b_to": 0.0,
            "br_r": 0.000727,
            "br_status": 1,
            "br_x": 0.0014990000000000001,
            "f_bus": 10,
            "g_fr": 0.0,
            "g_to": 0.0,
            "index": 22,
            "rate_a": 28.999999999999996,
            "rate_b": 0.0,
            "rate_c": 0.0,
            "shift": 0.0,
            "t_bus": 22,
            "tap": 1.0,
            "transformer": false
        },
        "23": {
            "angmax": 1.0471975511965976,
            "angmin": -1.0471975511965976,
            "b_fr": 0.0,
            "b_to": 0.0,
            "br_r": 0.00011599999999999999,
            "br_status": 1,
            "br_x": 0.000236,
            "f_bus": 21,
            "g_fr": 0.0,
            "g_to": 0.0,
            "index": 23,
            "rate_a": 28.999999999999996,
            "rate_b": 0.0,
            "rate_c": 0.0,
            "shift": 0.0,
            "t_bus": 22,
            "tap": 1.0,
            "transformer": false
        },
        "24": {
            "angmax": 1.0471975511965976,
            "angmin": -1.0471975511965976,
            "b_fr": 0.0,
            "b_to": 0.0,
            "br_r": 0.001,
            "br_status": 1,
            "br_x": 0.0020199999999999997,
            "f_bus": 15,
            "g_fr": 0.0,
            "g_to": 0.0,
            "index": 24,
            "rate_a": 28.999999999999996,
            "rate_b": 0.0,
            "rate_c": 0.0,
            "shift": 0.0,
            "t_bus": 23,
            "tap": 1.0,
            "transformer": false
        },
        "25": {
            "angmax": 1.0471975511965976,
            "angmin": -1.0471975511965976,
            "b_fr": 0.0,
            "b_to": 0.0,
            "br_r": 0.00115,
            "br_status": 1,
            "br_x": 0.00179,
            "f_bus": 22,
            "g_fr": 0.0,
            "g_to": 0.0,
            "index": 25,
            "rate_a": 25.999999999999996,
            "rate_b": 0.0,
            "rate_c": 0.0,
            "shift": 0.0,
            "t_bus": 24,
            "tap": 1.0,
            "transformer": false
        },
        "26": {
            "angmax": 1.0471975511965976,
            "angmin": -1.0471975511965976,
            "b_fr": 0.0,
            "b_to": 0.0,
            "br_r": 0.00132,
            "br_status": 1,
            "br_x": 0.0027,
            "f_bus": 23,
            "g_fr": 0.0,
            "g_to": 0.0,
            "index": 26,
            "rate_a": 28.999999999999996,
            "rate_b": 0.0,
            "rate_c": 0.0,
            "shift": 0.0,
            "t_bus": 24,
            "tap": 1.0,
            "transformer": false
        },
        "27": {
            "angmax": 1.0471975511965976,
            "angmin": -1.0471975511965976,
            "b_fr": 0.0,
            "b_to": 0.0,
            "br_r": 0.0018849999999999997,
            "br_status": 1,
            "br_x": 0.003292,
            "f_bus": 24,
            "g_fr": 0.0,
            "g_to": 0.0,
            "index": 27,
            "rate_a": 27.0,
            "rate_b": 0.0,
            "rate_c": 0.0,
            "shift": 0.0,
            "t_bus": 25,
            "tap": 1.0,
            "transformer": false
        },
        "28": {
            "angmax": 1.0471975511965976,
            "angmin": -1.0471975511965976,
            "b_fr": 0.0,
            "b_to": 0.0,
            "br_r": 0.0025440000000000003,
            "br_status": 1,
            "br_x": 0.0038,
            "f_bus": 25,
            "g_fr": 0.0,
            "g_to": 0.0,
            "index": 28,
            "rate_a": 25.0,
            "rate_b": 0.0,
            "rate_c": 0.0,
            "shift": 0.0,
            "t_bus": 26,
            "tap": 1.0,
            "transformer": false
        },
        "29": {
            "angmax": 1.0471975511965976,
            "angmin": -1.0471975511965976,
            "b_fr": 0.0,
            "b_to": 0.0,
            "br_r": 0.001093,
            "br_status": 1,
            "br_x": 0.002087,
            "f_bus": 25,
            "g_fr": 0.0,
            "g_to": 0.0,
            "index": 29,
            "rate_a": 28.0,
            "rate_b": 0.0,
            "rate_c": 0.0,
            "shift": 0.0,
            "t_bus": 27,
            "tap": 1.0,
            "transformer": false
        },
        "3": {
            "angmax": 1.0471975511965976,
            "angmin": -1.0471975511965976,
            "b_fr": 1.8400000000000003,
            "b_to": 1.8400000000000003,
            "br_r": 0.00057,
            "br_status": 1,
            "br_x": 0.0017369999999999998,
            "f_bus": 2,
            "g_fr": 0.0,
            "g_to": 0.0,
            "index": 3,
            "rate_a": 139.0,
            "rate_b": 0.0,
            "rate_c": 0.0,
            "shift": 0.0,
            "t_bus": 4,
            "tap": 1.0,
            "transformer": false
        },
        "30": {
            "angmax": 1.0471975511965976,
            "angmin": -1.0471975511965976,
            "b_fr": 0.0,
            "b_to": 0.0,
            "br_r": 0.002198,
            "br_status": 1,
            "br_x": 0.0041530000000000004,
            "f_bus": 27,
            "g_fr": 0.0,
            "g_to": 0.0,
            "index": 30,
            "rate_a": 28.0,
            "rate_b": 0.0,
            "rate_c": 0.0,
            "shift": 0.0,
            "t_bus": 29,
            "tap": 1.0,
            "transformer": false
        },
        "31": {
            "angmax": 1.0471975511965976,
            "angmin": -1.0471975511965976,
            "b_fr": 0.0,
            "b_to": 0.0,
            "br_r": 0.003202,
            "br_status": 1,
            "br_x": 0.006027,
            "f_bus": 27,
            "g_fr": 0.0,
            "g_to": 0.0,
            "index": 31,
            "rate_a": 28.0,
            "rate_b": 0.0,
            "rate_c": 0.0,
            "shift": 0.0,
            "t_bus": 30,
            "tap": 1.0,
            "transformer": false
        },
        "32": {
            "angmax": 1.0471975511965976,
            "angmin": -1.0471975511965976,
            "b_fr": 0.0,
            "b_to": 0.0,
            "br_r": 0.002399,
            "br_status": 1,
            "br_x": 0.004532999999999999,
            "f_bus": 29,
            "g_fr": 0.0,
            "g_to": 0.0,
            "index": 32,
            "rate_a": 28.0,
            "rate_b": 0.0,
            "rate_c": 0.0,
            "shift": 0.0,
            "t_bus": 30,
            "tap": 1.0,
            "transformer": false
        },
        "33": {
            "angmax": 1.0471975511965976,
            "angmin": -1.0471975511965976,
            "b_fr": 2.1399999999999997,
            "b_to": 2.1399999999999997,
            "br_r": 0.0006360000000000001,
            "br_status": 1,
            "br_x": 0.002,
            "f_bus": 8,
            "g_fr": 0.0,
            "g_to": 0.0,
            "index": 33,
            "rate_a": 140.0,
            "rate_b": 0.0,
            "rate_c": 0.0,
            "shift": 0.0,
            "t_bus": 28,
            "tap": 1.0,
            "transformer": false
        },
        "34": {
            "angmax": 1.0471975511965976,
            "angmin": -1.0471975511965976,
            "b_fr": 0.65,
            "b_to": 0.65,
            "br_r": 0.000169,
            "br_status": 1,
            "br_x": 0.000599,
            "f_bus": 6,
            "g_fr": 0.0,
            "g_to": 0.0,
            "index": 34,
            "rate_a": 149.0,
            "rate_b": 0.0,
            "rate_c": 0.0,
            "shift": 0.0,
            "t_bus": 28,
            "tap": 1.0,
            "transformer": false
        },
        "35": {
            "angmax": 1.0471975511965976,
            "angmin": -1.0471975511965976,
            "b_fr": -0.0,
            "b_to": -0.0,
            "br_r": 0.0,
            "br_status": 1,
            "br_x": 0.00208,
            "f_bus": 6,
            "g_fr": 0.0,
            "g_to": 0.0,
            "index": 35,
            "rate_a": 142.0,
            "rate_b": 0.0,
            "rate_c": 0.0,
            "shift": 0.0,
            "t_bus": 9,
            "tap": 0.978,
            "transformer": true
        },
        "36": {
            "angmax": 1.0471975511965976,
            "angmin": -1.0471975511965976,
            "b_fr": -0.0,
            "b_to": -0.0,
            "br_r": 0.0,
            "br_status": 1,
            "br_x": 0.005560000000000001,
            "f_bus": 6,
            "g_fr": 0.0,
            "g_to": 0.0,
            "index": 36,
            "rate_a": 53.0,
            "rate_b": 0.0,
            "rate_c": 0.0,
            "shift": 0.0,
            "t_bus": 10,
            "tap": 0.969,
            "transformer": true
        },
        "37": {
            "angmax": 1.0471975511965976,
            "angmin": -1.0471975511965976,
            "b_fr": -0.0,
            "b_to": -0.0,
            "br_r": 0.0,
            "br_status": 1,
            "br_x": 0.00256,
            "f_bus": 4,
            "g_fr": 0.0,
            "g_to": 0.0,
            "index": 37,
            "rate_a": 115.0,
            "rate_b": 0.0,
            "rate_c": 0.0,
            "shift": 0.0,
            "t_bus": 12,
            "tap": 0.932,
            "transformer": true
        },
        "38": {
            "angmax": 1.0471975511965976,
            "angmin": -1.0471975511965976,
            "b_fr": -0.0,
            "b_to": -0.0,
            "br_r": 0.0,
            "br_status": 1,
            "br_x": 0.003960000000000001,
            "f_bus": 28,
            "g_fr": 0.0,
            "g_to": 0.0,
            "index": 38,
            "rate_a": 75.0,
            "rate_b": 0.0,
            "rate_c": 0.0,
            "shift": 0.0,
            "t_bus": 27,
            "tap": 0.968,
            "transformer": true
        },
        "39": {
            "angmax": 1.0471975511965976,
            "angmin": -1.0471975511965976,
            "b_fr": 0.0,
            "b_to": 0.0,
            "br_r": 0.0,
            "br_status": 1,
            "br_x": 0.00208,
            "f_bus": 9,
            "g_fr": 0.0,
            "g_to": 0.0,
            "index": 39,
            "rate_a": 142.0,
            "rate_b": 0.0,
            "rate_c": 0.0,
            "shift": 0.0,
            "t_bus": 11,
            "tap": 1.0,
            "transformer": true
        },
        "4": {
            "angmax": 1.0471975511965976,
            "angmin": -1.0471975511965976,
            "b_fr": 0.42000000000000004,
            "b_to": 0.42000000000000004,
            "br_r": 0.000132,
            "br_status": 1,
            "br_x": 0.00037900000000000005,
            "f_bus": 3,
            "g_fr": 0.0,
            "g_to": 0.0,
            "index": 4,
            "rate_a": 134.99999999999997,
            "rate_b": 0.0,
            "rate_c": 0.0,
            "shift": 0.0,
            "t_bus": 4,
            "tap": 1.0,
            "transformer": false
        },
        "40": {
            "angmax": 1.0471975511965976,
            "angmin": -1.0471975511965976,
            "b_fr": 0.0,
            "b_to": 0.0,
            "br_r": 0.0,
            "br_status": 1,
            "br_x": 0.0011,
            "f_bus": 9,
            "g_fr": 0.0,
            "g_to": 0.0,
            "index": 40,
            "rate_a": 267.0,
            "rate_b": 0.0,
            "rate_c": 0.0,
            "shift": 0.0,
            "t_bus": 10,
            "tap": 1.0,
            "transformer": true
        },
        "41": {
            "angmax": 1.0471975511965976,
            "angmin": -1.0471975511965976,
            "b_fr": 0.0,
            "b_to": 0.0,
            "br_r": 0.0,
            "br_status": 1,
            "br_x": 0.0014000000000000002,
            "f_bus": 12,
            "g_fr": 0.0,
            "g_to": 0.0,
            "index": 41,
            "rate_a": 210.0,
            "rate_b": 0.0,
            "rate_c": 0.0,
            "shift": 0.0,
            "t_bus": 13,
            "tap": 1.0,
            "transformer": true
        },
        "5": {
            "angmax": 1.0471975511965976,
            "angmin": -1.0471975511965976,
            "b_fr": 2.09,
            "b_to": 2.09,
            "br_r": 0.000472,
            "br_status": 1,
            "br_x": 0.0019830000000000004,
            "f_bus": 2,
            "g_fr": 0.0,
            "g_to": 0.0,
            "index": 5,
            "rate_a": 144.0,
            "rate_b": 0.0,
            "rate_c": 0.0,
            "shift": 0.0,
            "t_bus": 5,
            "tap": 1.0,
            "transformer": false
        },
        "6": {
            "angmax": 1.0471975511965976,
            "angmin": -1.0471975511965976,
            "b_fr": 1.8700000000000006,
            "b_to": 1.8700000000000006,
            "br_r": 0.0005809999999999999,
            "br_status": 1,
            "br_x": 0.001763,
            "f_bus": 2,
            "g_fr": 0.0,
            "g_to": 0.0,
            "index": 6,
            "rate_a": 139.0,
            "rate_b": 0.0,
            "rate_c": 0.0,
            "shift": 0.0,
            "t_bus": 6,
            "tap": 1.0,
            "transformer": false
        },
        "7": {
            "angmax": 1.0471975511965976,
            "angmin": -1.0471975511965976,
            "b_fr": 0.44999999999999996,
            "b_to": 0.44999999999999996,
            "br_r": 0.000119,
            "br_status": 1,
            "br_x": 0.000414,
            "f_bus": 4,
            "g_fr": 0.0,
            "g_to": 0.0,
            "index": 7,
            "rate_a": 147.99999999999997,
            "rate_b": 0.0,
            "rate_c": 0.0,
            "shift": 0.0,
            "t_bus": 6,
            "tap": 1.0,
            "transformer": false
        },
        "8": {
            "angmax": 1.0471975511965976,
            "angmin": -1.0471975511965976,
            "b_fr": 1.02,
            "b_to": 1.02,
            "br_r": 0.00046,
            "br_status": 1,
            "br_x": 0.00116,
            "f_bus": 5,
            "g_fr": 0.0,
            "g_to": 0.0,
            "index": 8,
            "rate_a": 127.0,
            "rate_b": 0.0,
            "rate_c": 0.0,
            "shift": 0.0,
            "t_bus": 7,
            "tap": 1.0,
            "transformer": false
        },
        "9": {
            "angmax": 1.0471975511965976,
            "angmin": -1.0471975511965976,
            "b_fr": 0.8500000000000002,
            "b_to": 0.8500000000000002,
            "br_r": 0.00026700000000000004,
            "br_status": 1,
            "br_x": 0.00082,
            "f_bus": 6,
            "g_fr": 0.0,
            "g_to": 0.0,
            "index": 9,
            "rate_a": 140.0,
            "rate_b": 0.0,
            "rate_c": 0.0,
            "shift": 0.0,
            "t_bus": 7,
            "tap": 1.0,
            "transformer": false
        }
    },
    "bus": {
        "1": {
            "base_kv": 132.0,
            "bus_i": 1,
            "bus_type": 3,
            "index": 1,
            "va": 0.0,
            "vm": 1.0,
            "vmax": 1.00000001,
            "vmin": 0.99999999,
            "zone": 1
        },
        "10": {
            "base_kv": 33.0,
            "bus_i": 10,
            "bus_type": 1,
            "index": 10,
            "va": 0.0,
            "vm": 1.0,
            "vmax": 1.06,
            "vmin": 0.94,
            "zone": 1
        },
        "11": {
            "base_kv": 11.0,
            "bus_i": 11,
            "bus_type": 2,
            "index": 11,
            "va": 0.0,
            "vm": 1.0,
            "vmax": 1.06,
            "vmin": 0.94,
            "zone": 1
        },
        "12": {
            "base_kv": 33.0,
            "bus_i": 12,
            "bus_type": 1,
            "index": 12,
            "va": 0.0,
            "vm": 1.0,
            "vmax": 1.06,
            "vmin": 0.94,
            "zone": 1
        },
        "13": {
            "base_kv": 11.0,
            "bus_i": 13,
            "bus_type": 2,
            "index": 13,
            "va": 0.0,
            "vm": 1.0,
            "vmax": 1.06,
            "vmin": 0.94,
            "zone": 1
        },
        "14": {
            "base_kv": 33.0,
            "bus_i": 14,
            "bus_type": 1,
            "index": 14,
            "va": 0.0,
            "vm": 1.0,
            "vmax": 1.06,
            "vmin": 0.94,
            "zone": 1
        },
        "15": {
            "base_kv": 33.0,
            "bus_i": 15,
            "bus_type": 1,
            "index": 15,
            "va": 0.0,
            "vm": 1.0,
            "vmax": 1.06,
            "vmin": 0.94,
            "zone": 1
        },
        "16": {
            "base_kv": 33.0,
            "bus_i": 16,
            "bus_type": 1,
            "index": 16,
            "va": 0.0,
            "vm": 1.0,
            "vmax": 1.06,
            "vmin": 0.94,
            "zone": 1
        },
        "17": {
            "base_kv": 33.0,
            "bus_i": 17,
            "bus_type": 1,
            "index": 17,
            "va": 0.0,
            "vm": 1.0,
            "vmax": 1.06,
            "vmin": 0.94,
            "zone": 1
        },
        "18": {
            "base_kv": 33.0,
            "bus_i": 18,
            "bus_type": 1,
            "index": 18,
            "va": 0.0,
            "vm": 1.0,
            "vmax": 1.06,
            "vmin": 0.94,
            "zone": 1
        },
        "19": {
            "base_kv": 33.0,
            "bus_i": 19,
            "bus_type": 1,
            "index": 19,
            "va": 0.0,
            "vm": 1.0,
            "vmax": 1.06,
            "vmin": 0.94,
            "zone": 1
        },
        "2": {
            "base_kv": 132.0,
            "bus_i": 2,
            "bus_type": 2,
            "index": 2,
            "va": 0.0,
            "vm": 1.0,
            "vmax": 1.06,
            "vmin": 0.94,
            "zone": 1
        },
        "20": {
            "base_kv": 33.0,
            "bus_i": 20,
            "bus_type": 1,
            "index": 20,
            "va": 0.0,
            "vm": 1.0,
            "vmax": 1.06,
            "vmin": 0.94,
            "zone": 1
        },
        "21": {
            "base_kv": 33.0,
            "bus_i": 21,
            "bus_type": 1,
            "index": 21,
            "va": 0.0,
            "vm": 1.0,
            "vmax": 1.06,
            "vmin": 0.94,
            "zone": 1
        },
        "22": {
            "base_kv": 33.0,
            "bus_i": 22,
            "bus_type": 1,
            "index": 22,
            "va": 0.0,
            "vm": 1.0,
            "vmax": 1.06,
            "vmin": 0.94,
            "zone": 1
        },
        "23": {
            "base_kv": 33.0,
            "bus_i": 23,
            "bus_type": 1,
            "index": 23,
            "va": 0.0,
            "vm": 1.0,
            "vmax": 1.06,
            "vmin": 0.94,
            "zone": 1
        },
        "24": {
            "base_kv": 33.0,
            "bus_i": 24,
            "bus_type": 1,
            "index": 24,
            "va": 0.0,
            "vm": 1.0,
            "vmax": 1.06,
            "vmin": 0.94,
            "zone": 1
        },
        "25": {
            "base_kv": 33.0,
            "bus_i": 25,
            "bus_type": 1,
            "index": 25,
            "va": 0.0,
            "vm": 1.0,
            "vmax": 1.06,
            "vmin": 0.94,
            "zone": 1
        },
        "26": {
            "base_kv": 33.0,
            "bus_i": 26,
            "bus_type": 1,
            "index": 26,
            "va": 0.0,
            "vm": 1.0,
            "vmax": 1.06,
            "vmin": 0.94,
            "zone": 1
        },
        "27": {
            "base_kv": 33.0,
            "bus_i": 27,
            "bus_type": 1,
            "index": 27,
            "va": 0.0,
            "vm": 1.0,
            "vmax": 1.06,
            "vmin": 0.94,
            "zone": 1
        },
        "28": {
            "base_kv": 132.0,
            "bus_i": 28,
            "bus_type": 1,
            "index": 28,
            "va": 0.0,
            "vm": 1.0,
            "vmax": 1.06,
            "vmin": 0.94,
            "zone": 1
        },
        "29": {
            "base_kv": 33.0,
            "bus_i": 29,
            "bus_type": 1,
            "index": 29,
            "va": 0.0,
            "vm": 1.0,
            "vmax": 1.06,
            "vmin": 0.94,
            "zone": 1
        },
        "3": {
            "base_kv": 132.0,
            "bus_i": 3,
            "bus_type": 1,
            "index": 3,
            "va": 0.0,
            "vm": 1.0,
            "vmax": 1.06,
            "vmin": 0.94,
            "zone": 1
        },
        "30": {
            "base_kv": 33.0,
            "bus_i": 30,
            "bus_type": 1,
            "index": 30,
            "va": 0.0,
            "vm": 1.0,
            "vmax": 1.06,
            "vmin": 0.94,
            "zone": 1
        },
        "4": {
            "base_kv": 132.0,
            "bus_i": 4,
            "bus_type": 1,
            "index": 4,
            "va": 0.0,
            "vm": 1.0,
            "vmax": 1.06,
            "vmin": 0.94,
            "zone": 1
        },
        "5": {
            "base_kv": 132.0,
            "bus_i": 5,
            "bus_type": 2,
            "index": 5,
            "va": 0.0,
            "vm": 1.0,
            "vmax": 1.06,
            "vmin": 0.94,
            "zone": 1
        },
        "6": {
            "base_kv": 132.0,
            "bus_i": 6,
            "bus_type": 1,
            "index": 6,
            "va": 0.0,
            "vm": 1.0,
            "vmax": 1.06,
            "vmin": 0.94,
            "zone": 1
        },
        "7": {
            "base_kv": 132.0,
            "bus_i": 7,
            "bus_type": 1,
            "index": 7,
            "va": 0.0,
            "vm": 1.0,
            "vmax": 1.06,
            "vmin": 0.94,
            "zone": 1
        },
        "8": {
            "base_kv": 132.0,
            "bus_i": 8,
            "bus_type": 2,
            "index": 8,
            "va": 0.0,
            "vm": 1.0,
            "vmax": 1.06,
            "vmin": 0.94,
            "zone": 1
        },
        "9": {
            "base_kv": 1.0,
            "bus_i": 9,
            "bus_type": 1,
            "index": 9,
            "va": 0.0,
            "vm": 1.0,
            "vmax": 1.06,
            "vmin": 0.94,
            "zone": 1
        }
    },
    "correct_pm_network_data": true,
    "dcline": {},
    "gen": {
        "1": {
            "cost": [
                0,
                18.421528,
                0.0
            ],
            "gen_bus": 1,
            "gen_status": 1,
            "index": 1,
            "model": 2,
            "ncost": 3,
            "pg": 0.0,
            "pmax": 351.00000001,
            "pmin": -1e-08,
            "qg": 0.0,
            "qmax": 176.00000001,
            "qmin": -176.00000001,
            "shutdown": 0.0,
            "startup": 0.0,
            "vg": 1.0
        },
        "2": {
            "cost": [
                0,
                52.182254,
                0.0
            ],
            "gen_bus": 2,
            "gen_status": 1,
            "index": 2,
            "model": 2,
            "ncost": 3,
            "pg": 171.0,
            "pmax": 342.00000001,
            "pmin": -1e-08,
            "qg": 0.0,
            "qmax": 171.00000001,
            "qmin": -171.00000001,
            "shutdown": 0.0,
            "startup": 0.0,
            "vg": 1.0
        },
        "3": {
            "cost": [
                0,
                0.0,
                0.0
            ],
            "gen_bus": 5,
            "gen_status": 1,
            "index": 3,
            "model": 2,
            "ncost": 3,
            "pg": 0.0,
            "pmax": 1e-08,
            "pmin": -1e-08,
            "qg": 0.0,
            "qmax": 40.00000001,
            "qmin": -40.00000001,
            "shutdown": 0.0,
            "startup": 0.0,
            "vg": 1.0
        },
        "4": {
            "cost": [
                0,
                0.0,
                0.0
            ],
            "gen_bus": 8,
            "gen_status": 1,
            "index": 4,
            "model": 2,
            "ncost": 3,
            "pg": 0.0,
            "pmax": 1e-08,
            "pmin": -1e-08,
            "qg": 0.0,
            "qmax": 230.40000001,
            "qmin": -230.40000001,
            "shutdown": 0.0,
            "startup": 0.0,
            "vg": 1.0
        },
        "5": {
            "cost": [
                0,
                0.0,
                0.0
            ],
            "gen_bus": 11,
            "gen_status": 1,
            "index": 5,
            "model": 2,
            "ncost": 3,
            "pg": 0.0,
            "pmax": 1e-08,
            "pmin": -1e-08,
            "qg": 0.0,
            "qmax": 24.00000001,
            "qmin": -18.00000001,
            "shutdown": 0.0,
            "startup": 0.0,
            "vg": 1.0
        },
        "6": {
            "cost": [
                0,
                0.0,
                0.0
            ],
            "gen_bus": 13,
            "gen_status": 1,
            "index": 6,
            "model": 2,
            "ncost": 3,
            "pg": 0.0,
            "pmax": 1e-08,
            "pmin": -1e-08,
            "qg": 0.0,
            "qmax": 24.00000001,
            "qmin": -6.00000001,
            "shutdown": 0.0,
            "startup": 0.0,
            "vg": 1.0
        }
    },
    "load": {
        "1": {
            "index": 1,
            "load_bus": 2,
            "pd": 36.08,
            "qd": 12.7,
            "status": 1
        },
        "10": {
            "index": 10,
            "load_bus": 15,
            "pd": 13.63,
            "qd": 2.5,
            "status": 1
        },
        "11": {
            "index": 11,
            "load_bus": 16,
            "pd": 5.82,
            "qd": 1.8,
            "status": 1
        },
        "12": {
            "index": 12,
            "load_bus": 17,
            "pd": 14.96,
            "qd": 5.8,
            "status": 1
        },
        "13": {
            "index": 13,
            "load_bus": 18,
            "pd": 5.32,
            "qd": 0.9,
            "status": 1
        },
        "14": {
            "index": 14,
            "load_bus": 19,
            "pd": 15.8,
            "qd": 3.4,
            "status": 1
        },
        "15": {
            "index": 15,
            "load_bus": 20,
            "pd": 3.66,
            "qd": 0.7,
            "status": 1
        },
        "16": {
            "index": 16,
            "load_bus": 21,
            "pd": 29.1,
            "qd": 11.2,
            "status": 1
        },
        "17": {
            "index": 17,
            "load_bus": 23,
            "pd": 5.32,
            "qd": 1.6,
            "status": 1
        },
        "18": {
            "index": 18,
            "load_bus": 24,
            "pd": 14.47,
            "qd": 6.7,
            "status": 1
        },
        "19": {
            "index": 19,
            "load_bus": 26,
            "pd": 5.82,
            "qd": 2.3,
            "status": 1
        },
        "2": {
            "index": 2,
            "load_bus": 3,
            "pd": 3.99,
            "qd": 1.2,
            "status": 1
        },
        "20": {
            "index": 20,
            "load_bus": 29,
            "pd": 3.99,
            "qd": 0.9,
            "status": 1
        },
        "21": {
            "index": 21,
            "load_bus": 30,
            "pd": 17.63,
            "qd": 1.9,
            "status": 1
        },
        "3": {
            "index": 3,
            "load_bus": 4,
            "pd": 12.64,
            "qd": 1.6,
            "status": 1
        },
        "4": {
            "index": 4,
            "load_bus": 5,
            "pd": 156.63,
            "qd": 19.0,
            "status": 1
        },
        "5": {
            "index": 5,
            "load_bus": 7,
            "pd": 37.91,
            "qd": 10.9,
            "status": 1
        },
        "6": {
            "index": 6,
            "load_bus": 8,
            "pd": 49.88,
            "qd": 30.0,
            "status": 1
        },
        "7": {
            "index": 7,
            "load_bus": 10,
            "pd": 9.64,
            "qd": 2.0,
            "status": 1
        },
        "8": {
            "index": 8,
            "load_bus": 12,
            "pd": 18.62,
            "qd": 7.5,
            "status": 1
        },
        "9": {
            "index": 9,
            "load_bus": 14,
            "pd": 10.31,
            "qd": 1.6,
            "status": 1
        }
    },
    "name": "",
    "ne_branch": {},
    "per_unit": true,
    "pm_log_level": 0,
    "pm_mip_solver": "cbc",
    "pm_mip_time_limit": Infinity,
    "pm_model": "ACPPowerModel",
    "pm_nl_solver": "ipopt",
    "pm_nl_time_limit": Infinity,
    "pm_solver": "ipopt",
    "pm_time_limit": Infinity,
    "pm_tol": 1e-08,
    "shunt": {
        "1": {
            "bs": 0.19,
            "gs": 0.0,
            "index": 1,
            "shunt_bus": 10,
            "status": true
        },
        "2": {
            "bs": 0.04300000000000001,
            "gs": 0.0,
            "index": 2,
            "shunt_bus": 24,
            "status": true
        }
    },
    "silence": true,
    "source_version": "2.0.0",
    "sourcetype": "matpower",
    "storage": {},
    "switch": {},
    "user_defined_params": {
        "gen_and_controllable_sgen": {
            "2": 2,
            "3": 3,
            "4": 4,
            "5": 5,
            "6": 6
        }
    }
}